@<TRIPOS>MOLECULE
MOL
   30    32     1     0     0
SMALL
resp


@<TRIPOS>ATOM
      1  C1         -0.2380   -0.6160   -0.0700 ca        1 MOL      0.114425
      2  C2         -1.5390    0.0430   -0.3710 ce        1 MOL      0.216902
      3  N1         -1.3170   -2.6670    0.7670  n        1 MOL     -0.543156
      4  N2         -2.5670   -0.5270   -0.8690 n2        1 MOL     -0.522983
      5  C3         -2.4380   -2.8430   -0.0380  c        1 MOL      0.583739
      6  C4         -2.4900   -1.9270   -1.2550 c3        1 MOL      0.271942
      7  H1         -3.3840   -2.1920   -1.8150 h1        1 MOL      0.020575
      8  H2         -1.6050   -2.1260   -1.8770 h1        1 MOL      0.003584
      9  C5          1.0810   -2.4470    0.8310 ca        1 MOL     -0.206558
     10  C6          2.2520   -1.7420    0.6070 ca        1 MOL     -0.154602
     11  C7         -0.1700   -1.9110    0.4870 ca        1 MOL      0.100976
     12  C8          2.1820   -0.4800    0.0200 ca        1 MOL      0.126997
     13  C9          0.9590    0.0820   -0.3030 ca        1 MOL     -0.241763
     14  H3          3.2090   -2.1740    0.8720 ha        1 MOL      0.186861
     15  H4          0.9160    1.0720   -0.7370 ha        1 MOL      0.188126
     16  H5          1.1280   -3.4380    1.2690 ha        1 MOL      0.166556
     17  O1         -3.2780   -3.6690    0.2350  o        1 MOL     -0.565546
     18 C10         -1.6730    1.5060   -0.0440 ca        1 MOL      0.580475
     19 C11         -1.2180    2.0080    1.1810 ca        1 MOL     -0.474749
     20  N3         -2.2840    2.2730   -0.9560 nb        1 MOL     -0.679601
     21 C12         -1.4270    3.3510    1.4750 ca        1 MOL      0.159728
     22 C13         -2.4660    3.5610   -0.6660 ca        1 MOL      0.424914
     23 C14         -2.0650    4.1500    0.5330 ca        1 MOL     -0.479896
     24  H6         -0.7230    1.3560    1.8900 ha        1 MOL      0.164645
     25  H7         -1.1000    3.7630    2.4230 ha        1 MOL      0.117557
     26  H8         -2.9560    4.1550   -1.4320 h4        1 MOL      0.058843
     27  H9         -2.2470    5.2020    0.7150 ha        1 MOL      0.192749
     28 H10         -1.2380   -3.3740    1.4870 hn        1 MOL      0.364007
     29 Br1          3.7970    0.4890   -0.3310 br        1 MOL     -0.231518
     30  EP          5.5002    1.5114   -0.7006 ep        1 MOL      0.056772
@<TRIPOS>BOND
     1     1     2 1   
     2     1    11 ar  
     3     1    13 ar  
     4     2     4 2   
     5     2    18 1   
     6     3     5 1   
     7     3    11 1   
     8     3    28 1   
     9     4     6 1   
    10     5     6 1   
    11     5    17 2   
    12     6     7 1   
    13     6     8 1   
    14     9    10 ar  
    15     9    11 ar  
    16     9    16 1   
    17    10    12 ar  
    18    10    14 1   
    19    12    13 ar  
    20    12    29 1   
    21    13    15 1   
    22    18    19 ar  
    23    18    20 ar  
    24    19    21 ar  
    25    19    24 1   
    26    20    22 ar  
    27    21    23 ar  
    28    21    25 1   
    29    22    23 ar  
    30    22    26 1   
    31    23    27 1   
    32    29    30 1
@<TRIPOS>SUBSTRUCTURE
     1 MOL         1 TEMP              0 ****  ****    0 ROOT
